examples/feeders/2_PAL2_1/004_chavesMT.dss
New Line.2BP_2509233 phases=3 bus1=616891.1.2.3 bus2=2BP2509233.1.2.3 r1=0.001 r0=0.001 x1=0 x0=0 c1=0 c0=0 length=0.001 switch=T
New Line.2CF_100 phases=3 bus1=60781.1.2.3 bus2=2CF100.1.2.3 r1=0.001 r0=0.001 x1=0 x0=0 c1=0 c0=0 length=0.001 switch=T
New Line.2CF_1009 phases=1 bus1=764491.3 bus2=2CF1009.3 r1=0.001 r0=0.001 x1=0 x0=0 c1=0 c0=0 length=0.001 switch=T
New Line.2CF_1012 phases=3 bus1=528371.1.2.3 bus2=2CF1012.1.2.3 r1=0.001 r0=0.001 x1=0 x0=0 c1=0 c0=0 length=0.001 switch=T
New Line.2CF_1063 phases=3 bus1=646011.1.2.3 bus2=2CF1063.1.2.3 r1=0.001 r0=0.001 x1=0 x0=0 c1=0 c0=0 length=0.001 switch=T
New Line.2CF_1189 phases=3 bus1=16231.1.2.3 bus2=2CF1189.1.2.3 r1=0.001 r0=0.001 x1=0 x0=0 c1=0 c0=0 length=0.001 switch=T
New Line.2CF_1228 phases=3 bus1=734721.1.2.3 bus2=2CF1228.1.2.3 r1=0.001 r0=0.001 x1=0 x0=0 c1=0 c0=0 length=0.001 switch=T
New Line.2CF_1249 phases=3 bus1=705161.1.2.3 bus2=2CF1249.1.2.3 r1=0.001 r0=0.001 x1=0 x0=0 c1=0 c0=0 length=0.001 switch=T
New Line.2CF_1253 phases=3 bus1=247931.1.2.3 bus2=2CF1253.1.2.3 r1=0.001 r0=0.001 x1=0 x0=0 c1=0 c0=0 length=0.001 switch=T
New Line.2CF_1274 phases=3 bus1=772381.1.2.3 bus2=2CF1274.1.2.3 r1=0.001 r0=0.001 x1=0 x0=0 c1=0 c0=0 length=0.001 switch=T
New Line.2CF_1352 phases=3 bus1=422001.1.2.3 bus2=2CF1352.1.2.3 r1=0.001 r0=0.001 x1=0 x0=0 c1=0 c0=0 length=0.001 switch=T
New Line.2CF_1357 phases=1 bus1=677021.3 bus2=2CF1357.3 r1=0.001 r0=0.001 x1=0 x0=0 c1=0 c0=0 length=0.001 switch=T
New Line.2CF_1379 phases=3 bus1=617861.1.2.3 bus2=2CF1379.1.2.3 r1=0.001 r0=0.001 x1=0 x0=0 c1=0 c0=0 length=0.001 switch=T
New Line.2CF_1388 phases=3 bus1=742281.1.2.3 bus2=2CF1388.1.2.3 r1=0.001 r0=0.001 x1=0 x0=0 c1=0 c0=0 length=0.001 switch=T
New Line.2CF_1409 phases=1 bus1=811781.1 bus2=2CF1409.1 r1=0.001 r0=0.001 x1=0 x0=0 c1=0 c0=0 length=0.001 switch=T
New Line.2CF_1423 phases=3 bus1=724461.1.2.3 bus2=2CF1423.1.2.3 r1=0.001 r0=0.001 x1=0 x0=0 c1=0 c0=0 length=0.001 switch=T
New Line.2CF_1443 phases=3 bus1=685421.1.2.3 bus2=2CF1443.1.2.3 r1=0.001 r0=0.001 x1=0 x0=0 c1=0 c0=0 length=0.001 switch=T
New Line.2CF_1444 phases=3 bus1=746381.1.2.3 bus2=2CF1444.1.2.3 r1=0.001 r0=0.001 x1=0 x0=0 c1=0 c0=0 length=0.001 switch=T
New Line.2CF_147 phases=3 bus1=27211.1.2.3 bus2=2CF147.1.2.3 r1=0.001 r0=0.001 x1=0 x0=0 c1=0 c0=0 length=0.001 switch=T
New Line.2CF_149 phases=2 bus1=58281.1.2 bus2=2CF149.1.2 r1=0.001 r0=0.001 x1=0 x0=0 c1=0 c0=0 length=0.001 switch=T
New Line.2CF_150 phases=3 bus1=642121.1.2.3 bus2=2CF150.1.2.3 r1=0.001 r0=0.001 x1=0 x0=0 c1=0 c0=0 length=0.001 switch=T
New Line.2CF_151 phases=3 bus1=58291.1.2.3 bus2=2CF151.1.2.3 r1=0.001 r0=0.001 x1=0 x0=0 c1=0 c0=0 length=0.001 switch=T
New Line.2CF_1526 phases=1 bus1=748661.1 bus2=2CF1526.1 r1=0.001 r0=0.001 x1=0 x0=0 c1=0 c0=0 length=0.001 switch=T
New Line.2CF_1537 phases=3 bus1=804581.1.2.3 bus2=2CF1537.1.2.3 r1=0.001 r0=0.001 x1=0 x0=0 c1=0 c0=0 length=0.001 switch=T
New Line.2CF_1538 phases=3 bus1=690731.1.2.3 bus2=2CF1538.1.2.3 r1=0.001 r0=0.001 x1=0 x0=0 c1=0 c0=0 length=0.001 switch=T
New Line.2CF_156 phases=3 bus1=58341.1.2.3 bus2=2CF156.1.2.3 r1=0.001 r0=0.001 x1=0 x0=0 c1=0 c0=0 length=0.001 switch=T
New Line.2CF_157 phases=3 bus1=58351.1.2.3 bus2=2CF157.1.2.3 r1=0.001 r0=0.001 x1=0 x0=0 c1=0 c0=0 length=0.001 switch=T
New Line.2CF_158 phases=3 bus1=59131.1.2.3 bus2=2CF158.1.2.3 r1=0.001 r0=0.001 x1=0 x0=0 c1=0 c0=0 length=0.001 switch=T
New Line.2CF_1595 phases=3 bus1=755201.1.2.3 bus2=2CF1595.1.2.3 r1=0.001 r0=0.001 x1=0 x0=0 c1=0 c0=0 length=0.001 switch=T
New Line.2CF_1597 phases=1 bus1=764442.1 bus2=2CF1597.1 r1=0.001 r0=0.001 x1=0 x0=0 c1=0 c0=0 length=0.001 switch=T
New Line.2CF_1607 phases=3 bus1=759042.1.2.3 bus2=2CF1607.1.2.3 r1=0.001 r0=0.001 x1=0 x0=0 c1=0 c0=0 length=0.001 switch=T
New Line.2CF_1609 phases=1 bus1=759061.1 bus2=2CF1609.1 r1=0.001 r0=0.001 x1=0 x0=0 c1=0 c0=0 length=0.001 switch=T
New Line.2CF_162 phases=3 bus1=620341.1.2.3 bus2=2CF162.1.2.3 r1=0.001 r0=0.001 x1=0 x0=0 c1=0 c0=0 length=0.001 switch=T
New Line.2CF_1673 phases=3 bus1=765621.1.2.3 bus2=2CF1673.1.2.3 r1=0.001 r0=0.001 x1=0 x0=0 c1=0 c0=0 length=0.001 switch=T
New Line.2CF_1821 phases=3 bus1=802801.1.2.3 bus2=2CF1821.1.2.3 r1=0.001 r0=0.001 x1=0 x0=0 c1=0 c0=0 length=0.001 switch=T
New Line.2CF_1901 phases=3 bus1=812411.1.2.3 bus2=2CF1901.1.2.3 r1=0.001 r0=0.001 x1=0 x0=0 c1=0 c0=0 length=0.001 switch=T
New Line.2CF_1906 phases=1 bus1=811681.3 bus2=2CF1906.3 r1=0.001 r0=0.001 x1=0 x0=0 c1=0 c0=0 length=0.001 switch=T
New Line.2CF_1929 phases=3 bus1=814651.1.2.3 bus2=2CF1929.1.2.3 r1=0.001 r0=0.001 x1=0 x0=0 c1=0 c0=0 length=0.001 switch=T
New Line.2CF_1944 phases=3 bus1=816731.1.2.3 bus2=2CF1944.1.2.3 r1=0.001 r0=0.001 x1=0 x0=0 c1=0 c0=0 length=0.001 switch=T
New Line.2CF_259 phases=3 bus1=20791.1.2.3 bus2=2CF259.1.2.3 r1=0.001 r0=0.001 x1=0 x0=0 c1=0 c0=0 length=0.001 switch=T
New Line.2CF_271 phases=3 bus1=20761.1.2.3 bus2=2CF271.1.2.3 r1=0.001 r0=0.001 x1=0 x0=0 c1=0 c0=0 length=0.001 switch=T
New Line.2CF_274 phases=3 bus1=20781.1.2.3 bus2=2CF274.1.2.3 r1=0.001 r0=0.001 x1=0 x0=0 c1=0 c0=0 length=0.001 switch=T
New Line.2CF_298 phases=3 bus1=20811.1.2.3 bus2=2CF298.1.2.3 r1=0.001 r0=0.001 x1=0 x0=0 c1=0 c0=0 length=0.001 switch=T
New Line.2CF_299 phases=3 bus1=20841.1.2.3 bus2=2CF299.1.2.3 r1=0.001 r0=0.001 x1=0 x0=0 c1=0 c0=0 length=0.001 switch=T
New Line.2CF_301 phases=3 bus1=20821.1.2.3 bus2=2CF301.1.2.3 r1=0.001 r0=0.001 x1=0 x0=0 c1=0 c0=0 length=0.001 switch=T
New Line.2CF_302 phases=3 bus1=20851.1.2.3 bus2=2CF302.1.2.3 r1=0.001 r0=0.001 x1=0 x0=0 c1=0 c0=0 length=0.001 switch=T
New Line.2CF_304 phases=3 bus1=356491.1.2.3 bus2=2CF304.1.2.3 r1=0.001 r0=0.001 x1=0 x0=0 c1=0 c0=0 length=0.001 switch=T
New Line.2CF_742 phases=1 bus1=343751.3 bus2=2CF742.3 r1=0.001 r0=0.001 x1=0 x0=0 c1=0 c0=0 length=0.001 switch=T
New Line.2CF_768 phases=3 bus1=248601.1.2.3 bus2=2CF768.1.2.3 r1=0.001 r0=0.001 x1=0 x0=0 c1=0 c0=0 length=0.001 switch=T
New Line.2CF_770 phases=1 bus1=304121.2 bus2=2CF770.2 r1=0.001 r0=0.001 x1=0 x0=0 c1=0 c0=0 length=0.001 switch=T
New Line.2CF_888 phases=1 bus1=158291.3 bus2=2CF888.3 r1=0.001 r0=0.001 x1=0 x0=0 c1=0 c0=0 length=0.001 switch=T
New Line.2CF_932 phases=3 bus1=565531.1.2.3 bus2=2CF932.1.2.3 r1=0.001 r0=0.001 x1=0 x0=0 c1=0 c0=0 length=0.001 switch=T
New Line.2CF_936 phases=3 bus1=574741.1.2.3 bus2=2CF936.1.2.3 r1=0.001 r0=0.001 x1=0 x0=0 c1=0 c0=0 length=0.001 switch=T
New Line.2CF_937 phases=3 bus1=498241.1.2.3 bus2=2CF937.1.2.3 r1=0.001 r0=0.001 x1=0 x0=0 c1=0 c0=0 length=0.001 switch=T
New Line.2CF_938 phases=3 bus1=134911.1.2.3 bus2=2CF938.1.2.3 r1=0.001 r0=0.001 x1=0 x0=0 c1=0 c0=0 length=0.001 switch=T
New Line.2CF_96 phases=3 bus1=815881.1.2.3 bus2=2CF96.1.2.3 r1=0.001 r0=0.001 x1=0 x0=0 c1=0 c0=0 length=0.001 switch=T
New Line.2CF_995 phases=3 bus1=507951.1.2.3 bus2=2CF995.1.2.3 r1=0.001 r0=0.001 x1=0 x0=0 c1=0 c0=0 length=0.001 switch=T
New Line.2CO_154 phases=3 bus1=549831.1.2.3 bus2=2CO154.1.2.3 r1=0.001 r0=0.001 x1=0 x0=0 c1=0 c0=0 length=0.001 switch=T
New Line.2CO_419 phases=3 bus1=258721.1.2.3 bus2=2CO419.1.2.3 r1=0.001 r0=0.001 x1=0 x0=0 c1=0 c0=0 length=0.001 switch=T
New Line.2CS_1049 phases=3 bus1=518871.1.2.3 bus2=2CS1049.1.2.3 r1=0.001 r0=0.001 x1=0 x0=0 c1=0 c0=0 length=0.001 switch=T
New Line.2CS_1277 phases=3 bus1=725481.1.2.3 bus2=2CS1277.1.2.3 r1=0.001 r0=0.001 x1=0 x0=0 c1=0 c0=0 length=0.001 switch=T
New Line.2CS_1389 phases=3 bus1=742291.1.2.3 bus2=2CS1389.1.2.3 r1=0.001 r0=0.001 x1=0 x0=0 c1=0 c0=0 length=0.001 switch=T
New Line.2CS_148 phases=3 bus1=761521.1.2.3 bus2=2CS148.1.2.3 r1=0.001 r0=0.001 x1=0 x0=0 c1=0 c0=0 length=0.001 switch=T
New Line.2CS_1576 phases=3 bus1=755601.1.2.3 bus2=2CS1576.1.2.3 r1=0.001 r0=0.001 x1=0 x0=0 c1=0 c0=0 length=0.001 switch=T
New Line.2CS_1590 phases=3 bus1=755541.1.2.3 bus2=2CS1590.1.2.3 r1=0.001 r0=0.001 x1=0 x0=0 c1=0 c0=0 length=0.001 switch=T
New Line.2CS_273 phases=3 bus1=376831.1.2.3 bus2=2CS273.1.2.3 r1=0.001 r0=0.001 x1=0 x0=0 c1=0 c0=0 length=0.001 switch=T
New Line.2CS_94 phases=3 bus1=363391.1.2.3 bus2=2CS94.1.2.3 r1=0.001 r0=0.001 x1=0 x0=0 c1=0 c0=0 length=0.001 switch=T
New Line.2DJ_2 phases=3 bus1=2_PAL2_1.1.2.3 bus2=2DJ2.1.2.3 r1=0.001 r0=0.001 x1=0 x0=0 c1=0 c0=0 length=0.001 switch=T
New Line.2FR_102 phases=1 bus1=595051.2 bus2=2FR102.2 r1=0.001 r0=0.001 x1=0 x0=0 c1=0 c0=0 length=0.001 switch=T
New Line.2FR_120 phases=1 bus1=20671.1 bus2=2FR120.1 r1=0.001 r0=0.001 x1=0 x0=0 c1=0 c0=0 length=0.001 switch=T
New Line.2FR_159 phases=3 bus1=611661.1.2.3 bus2=2FR159.1.2.3 r1=0.001 r0=0.001 x1=0 x0=0 c1=0 c0=0 length=0.001 switch=T
New Line.2FR_160 phases=3 bus1=765241.1.2.3 bus2=2FR160.1.2.3 r1=0.001 r0=0.001 x1=0 x0=0 c1=0 c0=0 length=0.001 switch=T
New Line.2FR_272 phases=3 bus1=20771.1.2.3 bus2=2FR272.1.2.3 r1=0.001 r0=0.001 x1=0 x0=0 c1=0 c0=0 length=0.001 switch=T
New Line.2FR_277 phases=3 bus1=20801.1.2.3 bus2=2FR277.1.2.3 r1=0.001 r0=0.001 x1=0 x0=0 c1=0 c0=0 length=0.001 switch=T
New Line.2FR_303 phases=3 bus1=696191.1.2.3 bus2=2FR303.1.2.3 r1=0.001 r0=0.001 x1=0 x0=0 c1=0 c0=0 length=0.001 switch=T
New Line.2FR_879 phases=3 bus1=256211.1.2.3 bus2=2FR879.1.2.3 r1=0.001 r0=0.001 x1=0 x0=0 c1=0 c0=0 length=0.001 switch=T
New Line.2FR_93 phases=3 bus1=37271.1.2.3 bus2=2FR93.1.2.3 r1=0.001 r0=0.001 x1=0 x0=0 c1=0 c0=0 length=0.001 switch=T
New Line.2FR_95 phases=3 bus1=340391.1.2.3 bus2=2FR95.1.2.3 r1=0.001 r0=0.001 x1=0 x0=0 c1=0 c0=0 length=0.001 switch=T
New Line.2FR_958 phases=3 bus1=584091.1.2.3 bus2=2FR958.1.2.3 r1=0.001 r0=0.001 x1=0 x0=0 c1=0 c0=0 length=0.001 switch=T
New Line.2FR_960 phases=1 bus1=584161.2 bus2=2FR960.2 r1=0.001 r0=0.001 x1=0 x0=0 c1=0 c0=0 length=0.001 switch=T
New Line.2FR_98 phases=3 bus1=8541.1.2.3 bus2=2FR98.1.2.3 r1=0.001 r0=0.001 x1=0 x0=0 c1=0 c0=0 length=0.001 switch=T
New Line.2FR_99 phases=1 bus1=60761.2 bus2=2FR99.2 r1=0.001 r0=0.001 x1=0 x0=0 c1=0 c0=0 length=0.001 switch=T
New Line.2FS_101 phases=1 bus1=60791.3 bus2=2FS101.3 r1=0.001 r0=0.001 x1=0 x0=0 c1=0 c0=0 length=0.001 switch=T
New Line.2RL_1300 phases=3 bus1=735541.1.2.3 bus2=2RL1300.1.2.3 r1=0.001 r0=0.001 x1=0 x0=0 c1=0 c0=0 length=0.001 switch=T
New Line.2RL_152 phases=3 bus1=737132.1.2.3 bus2=2RL152.1.2.3 r1=0.001 r0=0.001 x1=0 x0=0 c1=0 c0=0 length=0.001 switch=T
New Line.2RL_155 phases=3 bus1=737121.1.2.3 bus2=2RL155.1.2.3 r1=0.001 r0=0.001 x1=0 x0=0 c1=0 c0=0 length=0.001 switch=T
New Line.2RL_2 phases=3 bus1=296951.1.2.3 bus2=2RL2.1.2.3 r1=0.001 r0=0.001 x1=0 x0=0 c1=0 c0=0 length=0.001 switch=T
New Line.2RL_313 phases=3 bus1=764501.1.2.3 bus2=2RL313.1.2.3 r1=0.001 r0=0.001 x1=0 x0=0 c1=0 c0=0 length=0.001 switch=T
New Line.3CF_1224 phases=3 bus1=668231.1.2.3 bus2=3CF1224.1.2.3 r1=0.001 r0=0.001 x1=0 x0=0 c1=0 c0=0 length=0.001 switch=T
New Line.6CF_1608 phases=1 bus1=759051.1 bus2=6CF1608.1 r1=0.001 r0=0.001 x1=0 x0=0 c1=0 c0=0 length=0.001 switch=T
